(SAIFILE
   (SAIFVERSION "2.0")
   (DIRECTION "backward")
   (DESIGN )
   (DATE "Wed Jul 19 20:09:39 2023")
   (VENDOR "Xilinx, Inc")
   (PROGRAM_NAME "Vivado Simulator")
   (VERSION "2018.2")
   (DIVIDER /)
   (TIMESCALE  1 ps)
   (DURATION  300000)
   (INSTANCE  posit_mult_8bit_tb_v
      (NET 
         (in1\[0\] (T0 193750) (T1 0) (TX 106250) (TZ 0) (TB 0) (TC 0))
         (in1\[1\] (T0 193750) (T1 0) (TX 106250) (TZ 0) (TB 0) (TC 0))
         (in1\[2\] (T0 193750) (T1 0) (TX 106250) (TZ 0) (TB 0) (TC 0))
         (in1\[3\] (T0 193750) (T1 0) (TX 106250) (TZ 0) (TB 0) (TC 0))
         (in1\[4\] (T0 193750) (T1 0) (TX 106250) (TZ 0) (TB 0) (TC 0))
         (in1\[5\] (T0 193750) (T1 0) (TX 106250) (TZ 0) (TB 0) (TC 0))
         (in1\[6\] (T0 193750) (T1 0) (TX 106250) (TZ 0) (TB 0) (TC 0))
         (in1\[7\] (T0 193750) (T1 0) (TX 106250) (TZ 0) (TB 0) (TC 0))
         (in1\[8\] (T0 193750) (T1 0) (TX 106250) (TZ 0) (TB 0) (TC 0))
         (in1\[9\] (T0 193750) (T1 0) (TX 106250) (TZ 0) (TB 0) (TC 0))
         (in1\[10\] (T0 193750) (T1 0) (TX 106250) (TZ 0) (TB 0) (TC 0))
         (in1\[11\] (T0 193750) (T1 0) (TX 106250) (TZ 0) (TB 0) (TC 0))
         (in1\[12\] (T0 193750) (T1 0) (TX 106250) (TZ 0) (TB 0) (TC 0))
         (in1\[13\] (T0 0) (T1 193750) (TX 106250) (TZ 0) (TB 0) (TC 0))
         (in1\[14\] (T0 100000) (T1 93750) (TX 106250) (TZ 0) (TB 0) (TC 3))
         (in1\[15\] (T0 100000) (T1 93750) (TX 106250) (TZ 0) (TB 0) (TC 3))
         (in1\[16\] (T0 93750) (T1 100000) (TX 106250) (TZ 0) (TB 0) (TC 3))
         (in1\[17\] (T0 100000) (T1 93750) (TX 106250) (TZ 0) (TB 0) (TC 3))
         (in1\[18\] (T0 93750) (T1 100000) (TX 106250) (TZ 0) (TB 0) (TC 3))
         (in1\[19\] (T0 93750) (T1 100000) (TX 106250) (TZ 0) (TB 0) (TC 3))
         (in1\[20\] (T0 93750) (T1 100000) (TX 106250) (TZ 0) (TB 0) (TC 3))
         (in1\[21\] (T0 93750) (T1 100000) (TX 106250) (TZ 0) (TB 0) (TC 3))
         (in1\[22\] (T0 100000) (T1 93750) (TX 106250) (TZ 0) (TB 0) (TC 3))
         (in1\[23\] (T0 93750) (T1 100000) (TX 106250) (TZ 0) (TB 0) (TC 3))
         (in1\[24\] (T0 93750) (T1 100000) (TX 106250) (TZ 0) (TB 0) (TC 3))
         (in1\[25\] (T0 100000) (T1 93750) (TX 106250) (TZ 0) (TB 0) (TC 3))
         (in1\[26\] (T0 100000) (T1 93750) (TX 106250) (TZ 0) (TB 0) (TC 3))
         (in1\[27\] (T0 100000) (T1 93750) (TX 106250) (TZ 0) (TB 0) (TC 3))
         (in1\[28\] (T0 100000) (T1 93750) (TX 106250) (TZ 0) (TB 0) (TC 3))
         (in1\[29\] (T0 100000) (T1 93750) (TX 106250) (TZ 0) (TB 0) (TC 3))
         (in1\[30\] (T0 93750) (T1 100000) (TX 106250) (TZ 0) (TB 0) (TC 3))
         (in1\[31\] (T0 100000) (T1 93750) (TX 106250) (TZ 0) (TB 0) (TC 3))
         (in2\[0\] (T0 193750) (T1 0) (TX 106250) (TZ 0) (TB 0) (TC 0))
         (in2\[1\] (T0 193750) (T1 0) (TX 106250) (TZ 0) (TB 0) (TC 0))
         (in2\[2\] (T0 193750) (T1 0) (TX 106250) (TZ 0) (TB 0) (TC 0))
         (in2\[3\] (T0 193750) (T1 0) (TX 106250) (TZ 0) (TB 0) (TC 0))
         (in2\[4\] (T0 193750) (T1 0) (TX 106250) (TZ 0) (TB 0) (TC 0))
         (in2\[5\] (T0 193750) (T1 0) (TX 106250) (TZ 0) (TB 0) (TC 0))
         (in2\[6\] (T0 193750) (T1 0) (TX 106250) (TZ 0) (TB 0) (TC 0))
         (in2\[7\] (T0 193750) (T1 0) (TX 106250) (TZ 0) (TB 0) (TC 0))
         (in2\[8\] (T0 193750) (T1 0) (TX 106250) (TZ 0) (TB 0) (TC 0))
         (in2\[9\] (T0 193750) (T1 0) (TX 106250) (TZ 0) (TB 0) (TC 0))
         (in2\[10\] (T0 193750) (T1 0) (TX 106250) (TZ 0) (TB 0) (TC 0))
         (in2\[11\] (T0 193750) (T1 0) (TX 106250) (TZ 0) (TB 0) (TC 0))
         (in2\[12\] (T0 193750) (T1 0) (TX 106250) (TZ 0) (TB 0) (TC 0))
         (in2\[13\] (T0 193750) (T1 0) (TX 106250) (TZ 0) (TB 0) (TC 0))
         (in2\[14\] (T0 193750) (T1 0) (TX 106250) (TZ 0) (TB 0) (TC 0))
         (in2\[15\] (T0 0) (T1 193750) (TX 106250) (TZ 0) (TB 0) (TC 0))
         (in2\[16\] (T0 193750) (T1 0) (TX 106250) (TZ 0) (TB 0) (TC 0))
         (in2\[17\] (T0 193750) (T1 0) (TX 106250) (TZ 0) (TB 0) (TC 0))
         (in2\[18\] (T0 193750) (T1 0) (TX 106250) (TZ 0) (TB 0) (TC 0))
         (in2\[19\] (T0 193750) (T1 0) (TX 106250) (TZ 0) (TB 0) (TC 0))
         (in2\[20\] (T0 193750) (T1 0) (TX 106250) (TZ 0) (TB 0) (TC 0))
         (in2\[21\] (T0 0) (T1 193750) (TX 106250) (TZ 0) (TB 0) (TC 0))
         (in2\[22\] (T0 0) (T1 193750) (TX 106250) (TZ 0) (TB 0) (TC 0))
         (in2\[23\] (T0 0) (T1 193750) (TX 106250) (TZ 0) (TB 0) (TC 0))
         (in2\[24\] (T0 193750) (T1 0) (TX 106250) (TZ 0) (TB 0) (TC 0))
         (in2\[25\] (T0 193750) (T1 0) (TX 106250) (TZ 0) (TB 0) (TC 0))
         (in2\[26\] (T0 193750) (T1 0) (TX 106250) (TZ 0) (TB 0) (TC 0))
         (in2\[27\] (T0 193750) (T1 0) (TX 106250) (TZ 0) (TB 0) (TC 0))
         (in2\[28\] (T0 193750) (T1 0) (TX 106250) (TZ 0) (TB 0) (TC 0))
         (in2\[29\] (T0 193750) (T1 0) (TX 106250) (TZ 0) (TB 0) (TC 0))
         (in2\[30\] (T0 0) (T1 193750) (TX 106250) (TZ 0) (TB 0) (TC 0))
         (in2\[31\] (T0 193750) (T1 0) (TX 106250) (TZ 0) (TB 0) (TC 0))
         (in1_float\[0\] (T0 193750) (T1 0) (TX 106250) (TZ 0) (TB 0) (TC 0))
         (in1_float\[1\] (T0 193750) (T1 0) (TX 106250) (TZ 0) (TB 0) (TC 0))
         (in1_float\[2\] (T0 193750) (T1 0) (TX 106250) (TZ 0) (TB 0) (TC 0))
         (in1_float\[3\] (T0 193750) (T1 0) (TX 106250) (TZ 0) (TB 0) (TC 0))
         (in1_float\[4\] (T0 193750) (T1 0) (TX 106250) (TZ 0) (TB 0) (TC 0))
         (in1_float\[5\] (T0 193750) (T1 0) (TX 106250) (TZ 0) (TB 0) (TC 0))
         (in1_float\[6\] (T0 193750) (T1 0) (TX 106250) (TZ 0) (TB 0) (TC 0))
         (in1_float\[7\] (T0 193750) (T1 0) (TX 106250) (TZ 0) (TB 0) (TC 0))
         (in1_float\[8\] (T0 193750) (T1 0) (TX 106250) (TZ 0) (TB 0) (TC 0))
         (in1_float\[9\] (T0 193750) (T1 0) (TX 106250) (TZ 0) (TB 0) (TC 0))
         (in1_float\[10\] (T0 193750) (T1 0) (TX 106250) (TZ 0) (TB 0) (TC 0))
         (in1_float\[11\] (T0 193750) (T1 0) (TX 106250) (TZ 0) (TB 0) (TC 0))
         (in1_float\[12\] (T0 193750) (T1 0) (TX 106250) (TZ 0) (TB 0) (TC 0))
         (in1_float\[13\] (T0 193750) (T1 0) (TX 106250) (TZ 0) (TB 0) (TC 0))
         (in1_float\[14\] (T0 0) (T1 193750) (TX 106250) (TZ 0) (TB 0) (TC 0))
         (in1_float\[15\] (T0 193750) (T1 0) (TX 106250) (TZ 0) (TB 0) (TC 0))
         (in1_float\[16\] (T0 193750) (T1 0) (TX 106250) (TZ 0) (TB 0) (TC 0))
         (in1_float\[17\] (T0 0) (T1 193750) (TX 106250) (TZ 0) (TB 0) (TC 0))
         (in1_float\[18\] (T0 193750) (T1 0) (TX 106250) (TZ 0) (TB 0) (TC 0))
         (in1_float\[19\] (T0 0) (T1 193750) (TX 106250) (TZ 0) (TB 0) (TC 0))
         (in1_float\[20\] (T0 0) (T1 193750) (TX 106250) (TZ 0) (TB 0) (TC 0))
         (in1_float\[21\] (T0 0) (T1 193750) (TX 106250) (TZ 0) (TB 0) (TC 0))
         (in1_float\[22\] (T0 0) (T1 193750) (TX 106250) (TZ 0) (TB 0) (TC 0))
         (in1_float\[23\] (T0 0) (T1 193750) (TX 106250) (TZ 0) (TB 0) (TC 0))
         (in1_float\[24\] (T0 193750) (T1 0) (TX 106250) (TZ 0) (TB 0) (TC 0))
         (in1_float\[25\] (T0 0) (T1 193750) (TX 106250) (TZ 0) (TB 0) (TC 0))
         (in1_float\[26\] (T0 193750) (T1 0) (TX 106250) (TZ 0) (TB 0) (TC 0))
         (in1_float\[27\] (T0 193750) (T1 0) (TX 106250) (TZ 0) (TB 0) (TC 0))
         (in1_float\[28\] (T0 193750) (T1 0) (TX 106250) (TZ 0) (TB 0) (TC 0))
         (in1_float\[29\] (T0 193750) (T1 0) (TX 106250) (TZ 0) (TB 0) (TC 0))
         (in1_float\[30\] (T0 0) (T1 193750) (TX 106250) (TZ 0) (TB 0) (TC 0))
         (in1_float\[31\] (T0 100000) (T1 93750) (TX 106250) (TZ 0) (TB 0) (TC 3))
         (in2_float\[0\] (T0 193750) (T1 0) (TX 106250) (TZ 0) (TB 0) (TC 0))
         (in2_float\[1\] (T0 193750) (T1 0) (TX 106250) (TZ 0) (TB 0) (TC 0))
         (in2_float\[2\] (T0 193750) (T1 0) (TX 106250) (TZ 0) (TB 0) (TC 0))
         (in2_float\[3\] (T0 193750) (T1 0) (TX 106250) (TZ 0) (TB 0) (TC 0))
         (in2_float\[4\] (T0 193750) (T1 0) (TX 106250) (TZ 0) (TB 0) (TC 0))
         (in2_float\[5\] (T0 193750) (T1 0) (TX 106250) (TZ 0) (TB 0) (TC 0))
         (in2_float\[6\] (T0 193750) (T1 0) (TX 106250) (TZ 0) (TB 0) (TC 0))
         (in2_float\[7\] (T0 193750) (T1 0) (TX 106250) (TZ 0) (TB 0) (TC 0))
         (in2_float\[8\] (T0 193750) (T1 0) (TX 106250) (TZ 0) (TB 0) (TC 0))
         (in2_float\[9\] (T0 193750) (T1 0) (TX 106250) (TZ 0) (TB 0) (TC 0))
         (in2_float\[10\] (T0 193750) (T1 0) (TX 106250) (TZ 0) (TB 0) (TC 0))
         (in2_float\[11\] (T0 193750) (T1 0) (TX 106250) (TZ 0) (TB 0) (TC 0))
         (in2_float\[12\] (T0 193750) (T1 0) (TX 106250) (TZ 0) (TB 0) (TC 0))
         (in2_float\[13\] (T0 193750) (T1 0) (TX 106250) (TZ 0) (TB 0) (TC 0))
         (in2_float\[14\] (T0 193750) (T1 0) (TX 106250) (TZ 0) (TB 0) (TC 0))
         (in2_float\[15\] (T0 193750) (T1 0) (TX 106250) (TZ 0) (TB 0) (TC 0))
         (in2_float\[16\] (T0 0) (T1 193750) (TX 106250) (TZ 0) (TB 0) (TC 0))
         (in2_float\[17\] (T0 193750) (T1 0) (TX 106250) (TZ 0) (TB 0) (TC 0))
         (in2_float\[18\] (T0 193750) (T1 0) (TX 106250) (TZ 0) (TB 0) (TC 0))
         (in2_float\[19\] (T0 193750) (T1 0) (TX 106250) (TZ 0) (TB 0) (TC 0))
         (in2_float\[20\] (T0 193750) (T1 0) (TX 106250) (TZ 0) (TB 0) (TC 0))
         (in2_float\[21\] (T0 193750) (T1 0) (TX 106250) (TZ 0) (TB 0) (TC 0))
         (in2_float\[22\] (T0 0) (T1 193750) (TX 106250) (TZ 0) (TB 0) (TC 0))
         (in2_float\[23\] (T0 193750) (T1 0) (TX 106250) (TZ 0) (TB 0) (TC 0))
         (in2_float\[24\] (T0 0) (T1 193750) (TX 106250) (TZ 0) (TB 0) (TC 0))
         (in2_float\[25\] (T0 193750) (T1 0) (TX 106250) (TZ 0) (TB 0) (TC 0))
         (in2_float\[26\] (T0 193750) (T1 0) (TX 106250) (TZ 0) (TB 0) (TC 0))
         (in2_float\[27\] (T0 193750) (T1 0) (TX 106250) (TZ 0) (TB 0) (TC 0))
         (in2_float\[28\] (T0 193750) (T1 0) (TX 106250) (TZ 0) (TB 0) (TC 0))
         (in2_float\[29\] (T0 193750) (T1 0) (TX 106250) (TZ 0) (TB 0) (TC 0))
         (in2_float\[30\] (T0 0) (T1 193750) (TX 106250) (TZ 0) (TB 0) (TC 0))
         (in2_float\[31\] (T0 193750) (T1 0) (TX 106250) (TZ 0) (TB 0) (TC 0))
         (start (T0 250000) (T1 50000) (TX 0) (TZ 0) (TB 0) (TC 8))
         (out\[0\] (T0 237500) (T1 0) (TX 62500) (TZ 0) (TB 0) (TC 0))
         (out\[1\] (T0 237500) (T1 0) (TX 62500) (TZ 0) (TB 0) (TC 0))
         (out\[2\] (T0 237500) (T1 0) (TX 62500) (TZ 0) (TB 0) (TC 0))
         (out\[3\] (T0 237500) (T1 0) (TX 62500) (TZ 0) (TB 0) (TC 0))
         (out\[4\] (T0 237500) (T1 0) (TX 62500) (TZ 0) (TB 0) (TC 0))
         (out\[5\] (T0 75000) (T1 162500) (TX 62500) (TZ 0) (TB 0) (TC 0))
         (out\[6\] (T0 143750) (T1 93750) (TX 62500) (TZ 0) (TB 0) (TC 3))
         (out\[7\] (T0 143750) (T1 93750) (TX 62500) (TZ 0) (TB 0) (TC 3))
         (out\[8\] (T0 168750) (T1 68750) (TX 62500) (TZ 0) (TB 0) (TC 3))
         (out\[9\] (T0 143750) (T1 93750) (TX 62500) (TZ 0) (TB 0) (TC 3))
         (out\[10\] (T0 168750) (T1 68750) (TX 62500) (TZ 0) (TB 0) (TC 3))
         (out\[11\] (T0 143750) (T1 93750) (TX 62500) (TZ 0) (TB 0) (TC 3))
         (out\[12\] (T0 168750) (T1 68750) (TX 62500) (TZ 0) (TB 0) (TC 3))
         (out\[13\] (T0 143750) (T1 93750) (TX 62500) (TZ 0) (TB 0) (TC 3))
         (out\[14\] (T0 168750) (T1 68750) (TX 62500) (TZ 0) (TB 0) (TC 3))
         (out\[15\] (T0 143750) (T1 93750) (TX 62500) (TZ 0) (TB 0) (TC 3))
         (out\[16\] (T0 143750) (T1 93750) (TX 62500) (TZ 0) (TB 0) (TC 3))
         (out\[17\] (T0 168750) (T1 68750) (TX 62500) (TZ 0) (TB 0) (TC 3))
         (out\[18\] (T0 168750) (T1 68750) (TX 62500) (TZ 0) (TB 0) (TC 3))
         (out\[19\] (T0 168750) (T1 68750) (TX 62500) (TZ 0) (TB 0) (TC 3))
         (out\[20\] (T0 168750) (T1 68750) (TX 62500) (TZ 0) (TB 0) (TC 3))
         (out\[21\] (T0 143750) (T1 93750) (TX 62500) (TZ 0) (TB 0) (TC 3))
         (out\[22\] (T0 143750) (T1 93750) (TX 62500) (TZ 0) (TB 0) (TC 3))
         (out\[23\] (T0 168750) (T1 68750) (TX 62500) (TZ 0) (TB 0) (TC 3))
         (out\[24\] (T0 143750) (T1 93750) (TX 62500) (TZ 0) (TB 0) (TC 3))
         (out\[25\] (T0 168750) (T1 68750) (TX 62500) (TZ 0) (TB 0) (TC 3))
         (out\[26\] (T0 143750) (T1 93750) (TX 62500) (TZ 0) (TB 0) (TC 3))
         (out\[27\] (T0 143750) (T1 93750) (TX 62500) (TZ 0) (TB 0) (TC 3))
         (out\[28\] (T0 143750) (T1 93750) (TX 62500) (TZ 0) (TB 0) (TC 3))
         (out\[29\] (T0 143750) (T1 93750) (TX 62500) (TZ 0) (TB 0) (TC 3))
         (out\[30\] (T0 168750) (T1 68750) (TX 62500) (TZ 0) (TB 0) (TC 3))
         (out\[31\] (T0 100000) (T1 93750) (TX 106250) (TZ 0) (TB 0) (TC 3))
         (out_float\[0\] (T0 162500) (T1 0) (TX 137500) (TZ 0) (TB 0) (TC 0))
         (out_float\[1\] (T0 162500) (T1 0) (TX 137500) (TZ 0) (TB 0) (TC 0))
         (out_float\[2\] (T0 162500) (T1 0) (TX 137500) (TZ 0) (TB 0) (TC 0))
         (out_float\[3\] (T0 162500) (T1 0) (TX 137500) (TZ 0) (TB 0) (TC 0))
         (out_float\[4\] (T0 162500) (T1 0) (TX 137500) (TZ 0) (TB 0) (TC 0))
         (out_float\[5\] (T0 162500) (T1 0) (TX 137500) (TZ 0) (TB 0) (TC 0))
         (out_float\[6\] (T0 0) (T1 162500) (TX 137500) (TZ 0) (TB 0) (TC 0))
         (out_float\[7\] (T0 162500) (T1 0) (TX 137500) (TZ 0) (TB 0) (TC 0))
         (out_float\[8\] (T0 162500) (T1 0) (TX 137500) (TZ 0) (TB 0) (TC 0))
         (out_float\[9\] (T0 0) (T1 162500) (TX 137500) (TZ 0) (TB 0) (TC 0))
         (out_float\[10\] (T0 162500) (T1 0) (TX 137500) (TZ 0) (TB 0) (TC 0))
         (out_float\[11\] (T0 0) (T1 162500) (TX 137500) (TZ 0) (TB 0) (TC 0))
         (out_float\[12\] (T0 162500) (T1 0) (TX 137500) (TZ 0) (TB 0) (TC 0))
         (out_float\[13\] (T0 0) (T1 162500) (TX 137500) (TZ 0) (TB 0) (TC 0))
         (out_float\[14\] (T0 162500) (T1 0) (TX 137500) (TZ 0) (TB 0) (TC 0))
         (out_float\[15\] (T0 0) (T1 162500) (TX 137500) (TZ 0) (TB 0) (TC 0))
         (out_float\[16\] (T0 162500) (T1 0) (TX 137500) (TZ 0) (TB 0) (TC 0))
         (out_float\[17\] (T0 162500) (T1 0) (TX 137500) (TZ 0) (TB 0) (TC 0))
         (out_float\[18\] (T0 0) (T1 162500) (TX 137500) (TZ 0) (TB 0) (TC 0))
         (out_float\[19\] (T0 0) (T1 162500) (TX 137500) (TZ 0) (TB 0) (TC 0))
         (out_float\[20\] (T0 0) (T1 162500) (TX 137500) (TZ 0) (TB 0) (TC 0))
         (out_float\[21\] (T0 0) (T1 162500) (TX 137500) (TZ 0) (TB 0) (TC 0))
         (out_float\[22\] (T0 162500) (T1 0) (TX 137500) (TZ 0) (TB 0) (TC 0))
         (out_float\[23\] (T0 0) (T1 162500) (TX 137500) (TZ 0) (TB 0) (TC 0))
         (out_float\[24\] (T0 162500) (T1 0) (TX 137500) (TZ 0) (TB 0) (TC 0))
         (out_float\[25\] (T0 162500) (T1 0) (TX 137500) (TZ 0) (TB 0) (TC 0))
         (out_float\[26\] (T0 0) (T1 162500) (TX 137500) (TZ 0) (TB 0) (TC 0))
         (out_float\[27\] (T0 162500) (T1 0) (TX 137500) (TZ 0) (TB 0) (TC 0))
         (out_float\[28\] (T0 162500) (T1 0) (TX 137500) (TZ 0) (TB 0) (TC 0))
         (out_float\[29\] (T0 162500) (T1 0) (TX 137500) (TZ 0) (TB 0) (TC 0))
         (out_float\[30\] (T0 0) (T1 162500) (TX 137500) (TZ 0) (TB 0) (TC 0))
         (out_float\[31\] (T0 175000) (T1 93750) (TX 31250) (TZ 0) (TB 0) (TC 3))
         (done (T0 250000) (T1 50000) (TX 0) (TZ 0) (TB 0) (TC 8))
         (inf (T0 193750) (T1 0) (TX 106250) (TZ 0) (TB 0) (TC 0))
         (zero (T0 300000) (T1 0) (TX 0) (TZ 0) (TB 0) (TC 0))
         (reset (T0 250000) (T1 50000) (TX 0) (TZ 0) (TB 0) (TC 1))
         (CLK (T0 150000) (T1 150000) (TX 0) (TZ 0) (TB 0) (TC 48))
         (N\[0\] (T0 300000) (T1 0) (TX 0) (TZ 0) (TB 0) (TC 0))
         (N\[1\] (T0 300000) (T1 0) (TX 0) (TZ 0) (TB 0) (TC 0))
         (N\[2\] (T0 300000) (T1 0) (TX 0) (TZ 0) (TB 0) (TC 0))
         (N\[3\] (T0 300000) (T1 0) (TX 0) (TZ 0) (TB 0) (TC 0))
         (N\[4\] (T0 300000) (T1 0) (TX 0) (TZ 0) (TB 0) (TC 0))
         (N\[5\] (T0 0) (T1 300000) (TX 0) (TZ 0) (TB 0) (TC 0))
         (N\[6\] (T0 300000) (T1 0) (TX 0) (TZ 0) (TB 0) (TC 0))
         (N\[7\] (T0 300000) (T1 0) (TX 0) (TZ 0) (TB 0) (TC 0))
         (N\[8\] (T0 300000) (T1 0) (TX 0) (TZ 0) (TB 0) (TC 0))
         (N\[9\] (T0 300000) (T1 0) (TX 0) (TZ 0) (TB 0) (TC 0))
         (N\[10\] (T0 300000) (T1 0) (TX 0) (TZ 0) (TB 0) (TC 0))
         (N\[11\] (T0 300000) (T1 0) (TX 0) (TZ 0) (TB 0) (TC 0))
         (N\[12\] (T0 300000) (T1 0) (TX 0) (TZ 0) (TB 0) (TC 0))
         (N\[13\] (T0 300000) (T1 0) (TX 0) (TZ 0) (TB 0) (TC 0))
         (N\[14\] (T0 300000) (T1 0) (TX 0) (TZ 0) (TB 0) (TC 0))
         (N\[15\] (T0 300000) (T1 0) (TX 0) (TZ 0) (TB 0) (TC 0))
         (N\[16\] (T0 300000) (T1 0) (TX 0) (TZ 0) (TB 0) (TC 0))
         (N\[17\] (T0 300000) (T1 0) (TX 0) (TZ 0) (TB 0) (TC 0))
         (N\[18\] (T0 300000) (T1 0) (TX 0) (TZ 0) (TB 0) (TC 0))
         (N\[19\] (T0 300000) (T1 0) (TX 0) (TZ 0) (TB 0) (TC 0))
         (N\[20\] (T0 300000) (T1 0) (TX 0) (TZ 0) (TB 0) (TC 0))
         (N\[21\] (T0 300000) (T1 0) (TX 0) (TZ 0) (TB 0) (TC 0))
         (N\[22\] (T0 300000) (T1 0) (TX 0) (TZ 0) (TB 0) (TC 0))
         (N\[23\] (T0 300000) (T1 0) (TX 0) (TZ 0) (TB 0) (TC 0))
         (N\[24\] (T0 300000) (T1 0) (TX 0) (TZ 0) (TB 0) (TC 0))
         (N\[25\] (T0 300000) (T1 0) (TX 0) (TZ 0) (TB 0) (TC 0))
         (N\[26\] (T0 300000) (T1 0) (TX 0) (TZ 0) (TB 0) (TC 0))
         (N\[27\] (T0 300000) (T1 0) (TX 0) (TZ 0) (TB 0) (TC 0))
         (N\[28\] (T0 300000) (T1 0) (TX 0) (TZ 0) (TB 0) (TC 0))
         (N\[29\] (T0 300000) (T1 0) (TX 0) (TZ 0) (TB 0) (TC 0))
         (N\[30\] (T0 300000) (T1 0) (TX 0) (TZ 0) (TB 0) (TC 0))
         (N\[31\] (T0 300000) (T1 0) (TX 0) (TZ 0) (TB 0) (TC 0))
         (Bs\[0\] (T0 0) (T1 300000) (TX 0) (TZ 0) (TB 0) (TC 0))
         (Bs\[1\] (T0 300000) (T1 0) (TX 0) (TZ 0) (TB 0) (TC 0))
         (Bs\[2\] (T0 0) (T1 300000) (TX 0) (TZ 0) (TB 0) (TC 0))
         (Bs\[3\] (T0 300000) (T1 0) (TX 0) (TZ 0) (TB 0) (TC 0))
         (Bs\[4\] (T0 300000) (T1 0) (TX 0) (TZ 0) (TB 0) (TC 0))
         (Bs\[5\] (T0 300000) (T1 0) (TX 0) (TZ 0) (TB 0) (TC 0))
         (Bs\[6\] (T0 300000) (T1 0) (TX 0) (TZ 0) (TB 0) (TC 0))
         (Bs\[7\] (T0 300000) (T1 0) (TX 0) (TZ 0) (TB 0) (TC 0))
         (Bs\[8\] (T0 300000) (T1 0) (TX 0) (TZ 0) (TB 0) (TC 0))
         (Bs\[9\] (T0 300000) (T1 0) (TX 0) (TZ 0) (TB 0) (TC 0))
         (Bs\[10\] (T0 300000) (T1 0) (TX 0) (TZ 0) (TB 0) (TC 0))
         (Bs\[11\] (T0 300000) (T1 0) (TX 0) (TZ 0) (TB 0) (TC 0))
         (Bs\[12\] (T0 300000) (T1 0) (TX 0) (TZ 0) (TB 0) (TC 0))
         (Bs\[13\] (T0 300000) (T1 0) (TX 0) (TZ 0) (TB 0) (TC 0))
         (Bs\[14\] (T0 300000) (T1 0) (TX 0) (TZ 0) (TB 0) (TC 0))
         (Bs\[15\] (T0 300000) (T1 0) (TX 0) (TZ 0) (TB 0) (TC 0))
         (Bs\[16\] (T0 300000) (T1 0) (TX 0) (TZ 0) (TB 0) (TC 0))
         (Bs\[17\] (T0 300000) (T1 0) (TX 0) (TZ 0) (TB 0) (TC 0))
         (Bs\[18\] (T0 300000) (T1 0) (TX 0) (TZ 0) (TB 0) (TC 0))
         (Bs\[19\] (T0 300000) (T1 0) (TX 0) (TZ 0) (TB 0) (TC 0))
         (Bs\[20\] (T0 300000) (T1 0) (TX 0) (TZ 0) (TB 0) (TC 0))
         (Bs\[21\] (T0 300000) (T1 0) (TX 0) (TZ 0) (TB 0) (TC 0))
         (Bs\[22\] (T0 300000) (T1 0) (TX 0) (TZ 0) (TB 0) (TC 0))
         (Bs\[23\] (T0 300000) (T1 0) (TX 0) (TZ 0) (TB 0) (TC 0))
         (Bs\[24\] (T0 300000) (T1 0) (TX 0) (TZ 0) (TB 0) (TC 0))
         (Bs\[25\] (T0 300000) (T1 0) (TX 0) (TZ 0) (TB 0) (TC 0))
         (Bs\[26\] (T0 300000) (T1 0) (TX 0) (TZ 0) (TB 0) (TC 0))
         (Bs\[27\] (T0 300000) (T1 0) (TX 0) (TZ 0) (TB 0) (TC 0))
         (Bs\[28\] (T0 300000) (T1 0) (TX 0) (TZ 0) (TB 0) (TC 0))
         (Bs\[29\] (T0 300000) (T1 0) (TX 0) (TZ 0) (TB 0) (TC 0))
         (Bs\[30\] (T0 300000) (T1 0) (TX 0) (TZ 0) (TB 0) (TC 0))
         (Bs\[31\] (T0 300000) (T1 0) (TX 0) (TZ 0) (TB 0) (TC 0))
         (es\[0\] (T0 0) (T1 300000) (TX 0) (TZ 0) (TB 0) (TC 0))
         (es\[1\] (T0 0) (T1 300000) (TX 0) (TZ 0) (TB 0) (TC 0))
         (es\[2\] (T0 0) (T1 300000) (TX 0) (TZ 0) (TB 0) (TC 0))
         (es\[3\] (T0 300000) (T1 0) (TX 0) (TZ 0) (TB 0) (TC 0))
         (es\[4\] (T0 300000) (T1 0) (TX 0) (TZ 0) (TB 0) (TC 0))
         (es\[5\] (T0 300000) (T1 0) (TX 0) (TZ 0) (TB 0) (TC 0))
         (es\[6\] (T0 300000) (T1 0) (TX 0) (TZ 0) (TB 0) (TC 0))
         (es\[7\] (T0 300000) (T1 0) (TX 0) (TZ 0) (TB 0) (TC 0))
         (es\[8\] (T0 300000) (T1 0) (TX 0) (TZ 0) (TB 0) (TC 0))
         (es\[9\] (T0 300000) (T1 0) (TX 0) (TZ 0) (TB 0) (TC 0))
         (es\[10\] (T0 300000) (T1 0) (TX 0) (TZ 0) (TB 0) (TC 0))
         (es\[11\] (T0 300000) (T1 0) (TX 0) (TZ 0) (TB 0) (TC 0))
         (es\[12\] (T0 300000) (T1 0) (TX 0) (TZ 0) (TB 0) (TC 0))
         (es\[13\] (T0 300000) (T1 0) (TX 0) (TZ 0) (TB 0) (TC 0))
         (es\[14\] (T0 300000) (T1 0) (TX 0) (TZ 0) (TB 0) (TC 0))
         (es\[15\] (T0 300000) (T1 0) (TX 0) (TZ 0) (TB 0) (TC 0))
         (es\[16\] (T0 300000) (T1 0) (TX 0) (TZ 0) (TB 0) (TC 0))
         (es\[17\] (T0 300000) (T1 0) (TX 0) (TZ 0) (TB 0) (TC 0))
         (es\[18\] (T0 300000) (T1 0) (TX 0) (TZ 0) (TB 0) (TC 0))
         (es\[19\] (T0 300000) (T1 0) (TX 0) (TZ 0) (TB 0) (TC 0))
         (es\[20\] (T0 300000) (T1 0) (TX 0) (TZ 0) (TB 0) (TC 0))
         (es\[21\] (T0 300000) (T1 0) (TX 0) (TZ 0) (TB 0) (TC 0))
         (es\[22\] (T0 300000) (T1 0) (TX 0) (TZ 0) (TB 0) (TC 0))
         (es\[23\] (T0 300000) (T1 0) (TX 0) (TZ 0) (TB 0) (TC 0))
         (es\[24\] (T0 300000) (T1 0) (TX 0) (TZ 0) (TB 0) (TC 0))
         (es\[25\] (T0 300000) (T1 0) (TX 0) (TZ 0) (TB 0) (TC 0))
         (es\[26\] (T0 300000) (T1 0) (TX 0) (TZ 0) (TB 0) (TC 0))
         (es\[27\] (T0 300000) (T1 0) (TX 0) (TZ 0) (TB 0) (TC 0))
         (es\[28\] (T0 300000) (T1 0) (TX 0) (TZ 0) (TB 0) (TC 0))
         (es\[29\] (T0 300000) (T1 0) (TX 0) (TZ 0) (TB 0) (TC 0))
         (es\[30\] (T0 300000) (T1 0) (TX 0) (TZ 0) (TB 0) (TC 0))
         (es\[31\] (T0 300000) (T1 0) (TX 0) (TZ 0) (TB 0) (TC 0))
      )
      (INSTANCE  d1
         (NET 
            (in\[0\] (T0 193750) (T1 0) (TX 106250) (TZ 0) (TB 0) (TC 0))
            (in\[1\] (T0 193750) (T1 0) (TX 106250) (TZ 0) (TB 0) (TC 0))
            (in\[2\] (T0 193750) (T1 0) (TX 106250) (TZ 0) (TB 0) (TC 0))
            (in\[3\] (T0 193750) (T1 0) (TX 106250) (TZ 0) (TB 0) (TC 0))
            (in\[4\] (T0 193750) (T1 0) (TX 106250) (TZ 0) (TB 0) (TC 0))
            (in\[5\] (T0 193750) (T1 0) (TX 106250) (TZ 0) (TB 0) (TC 0))
            (in\[6\] (T0 193750) (T1 0) (TX 106250) (TZ 0) (TB 0) (TC 0))
            (in\[7\] (T0 193750) (T1 0) (TX 106250) (TZ 0) (TB 0) (TC 0))
            (in\[8\] (T0 193750) (T1 0) (TX 106250) (TZ 0) (TB 0) (TC 0))
            (in\[9\] (T0 193750) (T1 0) (TX 106250) (TZ 0) (TB 0) (TC 0))
            (in\[10\] (T0 193750) (T1 0) (TX 106250) (TZ 0) (TB 0) (TC 0))
            (in\[11\] (T0 193750) (T1 0) (TX 106250) (TZ 0) (TB 0) (TC 0))
            (in\[12\] (T0 193750) (T1 0) (TX 106250) (TZ 0) (TB 0) (TC 0))
            (in\[13\] (T0 193750) (T1 0) (TX 106250) (TZ 0) (TB 0) (TC 0))
            (in\[14\] (T0 0) (T1 193750) (TX 106250) (TZ 0) (TB 0) (TC 0))
            (in\[15\] (T0 193750) (T1 0) (TX 106250) (TZ 0) (TB 0) (TC 0))
            (in\[16\] (T0 193750) (T1 0) (TX 106250) (TZ 0) (TB 0) (TC 0))
            (in\[17\] (T0 0) (T1 193750) (TX 106250) (TZ 0) (TB 0) (TC 0))
            (in\[18\] (T0 193750) (T1 0) (TX 106250) (TZ 0) (TB 0) (TC 0))
            (in\[19\] (T0 0) (T1 193750) (TX 106250) (TZ 0) (TB 0) (TC 0))
            (in\[20\] (T0 0) (T1 193750) (TX 106250) (TZ 0) (TB 0) (TC 0))
            (in\[21\] (T0 0) (T1 193750) (TX 106250) (TZ 0) (TB 0) (TC 0))
            (in\[22\] (T0 0) (T1 193750) (TX 106250) (TZ 0) (TB 0) (TC 0))
            (in\[23\] (T0 0) (T1 193750) (TX 106250) (TZ 0) (TB 0) (TC 0))
            (in\[24\] (T0 193750) (T1 0) (TX 106250) (TZ 0) (TB 0) (TC 0))
            (in\[25\] (T0 0) (T1 193750) (TX 106250) (TZ 0) (TB 0) (TC 0))
            (in\[26\] (T0 193750) (T1 0) (TX 106250) (TZ 0) (TB 0) (TC 0))
            (in\[27\] (T0 193750) (T1 0) (TX 106250) (TZ 0) (TB 0) (TC 0))
            (in\[28\] (T0 193750) (T1 0) (TX 106250) (TZ 0) (TB 0) (TC 0))
            (in\[29\] (T0 193750) (T1 0) (TX 106250) (TZ 0) (TB 0) (TC 0))
            (in\[30\] (T0 0) (T1 193750) (TX 106250) (TZ 0) (TB 0) (TC 0))
            (in\[31\] (T0 100000) (T1 93750) (TX 106250) (TZ 0) (TB 0) (TC 3))
            (out\[0\] (T0 193750) (T1 0) (TX 106250) (TZ 0) (TB 0) (TC 0))
            (out\[1\] (T0 193750) (T1 0) (TX 106250) (TZ 0) (TB 0) (TC 0))
            (out\[2\] (T0 193750) (T1 0) (TX 106250) (TZ 0) (TB 0) (TC 0))
            (out\[3\] (T0 193750) (T1 0) (TX 106250) (TZ 0) (TB 0) (TC 0))
            (out\[4\] (T0 193750) (T1 0) (TX 106250) (TZ 0) (TB 0) (TC 0))
            (out\[5\] (T0 193750) (T1 0) (TX 106250) (TZ 0) (TB 0) (TC 0))
            (out\[6\] (T0 193750) (T1 0) (TX 106250) (TZ 0) (TB 0) (TC 0))
            (out\[7\] (T0 193750) (T1 0) (TX 106250) (TZ 0) (TB 0) (TC 0))
            (out\[8\] (T0 193750) (T1 0) (TX 106250) (TZ 0) (TB 0) (TC 0))
            (out\[9\] (T0 193750) (T1 0) (TX 106250) (TZ 0) (TB 0) (TC 0))
            (out\[10\] (T0 193750) (T1 0) (TX 106250) (TZ 0) (TB 0) (TC 0))
            (out\[11\] (T0 193750) (T1 0) (TX 106250) (TZ 0) (TB 0) (TC 0))
            (out\[12\] (T0 193750) (T1 0) (TX 106250) (TZ 0) (TB 0) (TC 0))
            (out\[13\] (T0 0) (T1 193750) (TX 106250) (TZ 0) (TB 0) (TC 0))
            (out\[14\] (T0 100000) (T1 93750) (TX 106250) (TZ 0) (TB 0) (TC 3))
            (out\[15\] (T0 100000) (T1 93750) (TX 106250) (TZ 0) (TB 0) (TC 3))
            (out\[16\] (T0 93750) (T1 100000) (TX 106250) (TZ 0) (TB 0) (TC 3))
            (out\[17\] (T0 100000) (T1 93750) (TX 106250) (TZ 0) (TB 0) (TC 3))
            (out\[18\] (T0 93750) (T1 100000) (TX 106250) (TZ 0) (TB 0) (TC 3))
            (out\[19\] (T0 93750) (T1 100000) (TX 106250) (TZ 0) (TB 0) (TC 3))
            (out\[20\] (T0 93750) (T1 100000) (TX 106250) (TZ 0) (TB 0) (TC 3))
            (out\[21\] (T0 93750) (T1 100000) (TX 106250) (TZ 0) (TB 0) (TC 3))
            (out\[22\] (T0 100000) (T1 93750) (TX 106250) (TZ 0) (TB 0) (TC 3))
            (out\[23\] (T0 93750) (T1 100000) (TX 106250) (TZ 0) (TB 0) (TC 3))
            (out\[24\] (T0 93750) (T1 100000) (TX 106250) (TZ 0) (TB 0) (TC 3))
            (out\[25\] (T0 100000) (T1 93750) (TX 106250) (TZ 0) (TB 0) (TC 3))
            (out\[26\] (T0 100000) (T1 93750) (TX 106250) (TZ 0) (TB 0) (TC 3))
            (out\[27\] (T0 100000) (T1 93750) (TX 106250) (TZ 0) (TB 0) (TC 3))
            (out\[28\] (T0 100000) (T1 93750) (TX 106250) (TZ 0) (TB 0) (TC 3))
            (out\[29\] (T0 100000) (T1 93750) (TX 106250) (TZ 0) (TB 0) (TC 3))
            (out\[30\] (T0 93750) (T1 100000) (TX 106250) (TZ 0) (TB 0) (TC 3))
            (out\[31\] (T0 100000) (T1 93750) (TX 106250) (TZ 0) (TB 0) (TC 3))
            (s_in (T0 100000) (T1 93750) (TX 106250) (TZ 0) (TB 0) (TC 3))
            (exp_in\[0\] (T0 0) (T1 193750) (TX 106250) (TZ 0) (TB 0) (TC 0))
            (exp_in\[1\] (T0 193750) (T1 0) (TX 106250) (TZ 0) (TB 0) (TC 0))
            (exp_in\[2\] (T0 0) (T1 193750) (TX 106250) (TZ 0) (TB 0) (TC 0))
            (exp_in\[3\] (T0 193750) (T1 0) (TX 106250) (TZ 0) (TB 0) (TC 0))
            (exp_in\[4\] (T0 193750) (T1 0) (TX 106250) (TZ 0) (TB 0) (TC 0))
            (exp_in\[5\] (T0 193750) (T1 0) (TX 106250) (TZ 0) (TB 0) (TC 0))
            (exp_in\[6\] (T0 193750) (T1 0) (TX 106250) (TZ 0) (TB 0) (TC 0))
            (exp_in\[7\] (T0 0) (T1 193750) (TX 106250) (TZ 0) (TB 0) (TC 0))
            (mant_in\[0\] (T0 193750) (T1 0) (TX 106250) (TZ 0) (TB 0) (TC 0))
            (mant_in\[1\] (T0 193750) (T1 0) (TX 106250) (TZ 0) (TB 0) (TC 0))
            (mant_in\[2\] (T0 193750) (T1 0) (TX 106250) (TZ 0) (TB 0) (TC 0))
            (mant_in\[3\] (T0 193750) (T1 0) (TX 106250) (TZ 0) (TB 0) (TC 0))
            (mant_in\[4\] (T0 193750) (T1 0) (TX 106250) (TZ 0) (TB 0) (TC 0))
            (mant_in\[5\] (T0 193750) (T1 0) (TX 106250) (TZ 0) (TB 0) (TC 0))
            (mant_in\[6\] (T0 193750) (T1 0) (TX 106250) (TZ 0) (TB 0) (TC 0))
            (mant_in\[7\] (T0 193750) (T1 0) (TX 106250) (TZ 0) (TB 0) (TC 0))
            (mant_in\[8\] (T0 193750) (T1 0) (TX 106250) (TZ 0) (TB 0) (TC 0))
            (mant_in\[9\] (T0 193750) (T1 0) (TX 106250) (TZ 0) (TB 0) (TC 0))
            (mant_in\[10\] (T0 193750) (T1 0) (TX 106250) (TZ 0) (TB 0) (TC 0))
            (mant_in\[11\] (T0 193750) (T1 0) (TX 106250) (TZ 0) (TB 0) (TC 0))
            (mant_in\[12\] (T0 193750) (T1 0) (TX 106250) (TZ 0) (TB 0) (TC 0))
            (mant_in\[13\] (T0 193750) (T1 0) (TX 106250) (TZ 0) (TB 0) (TC 0))
            (mant_in\[14\] (T0 0) (T1 193750) (TX 106250) (TZ 0) (TB 0) (TC 0))
            (mant_in\[15\] (T0 193750) (T1 0) (TX 106250) (TZ 0) (TB 0) (TC 0))
            (mant_in\[16\] (T0 193750) (T1 0) (TX 106250) (TZ 0) (TB 0) (TC 0))
            (mant_in\[17\] (T0 0) (T1 193750) (TX 106250) (TZ 0) (TB 0) (TC 0))
            (mant_in\[18\] (T0 193750) (T1 0) (TX 106250) (TZ 0) (TB 0) (TC 0))
            (mant_in\[19\] (T0 0) (T1 193750) (TX 106250) (TZ 0) (TB 0) (TC 0))
            (mant_in\[20\] (T0 0) (T1 193750) (TX 106250) (TZ 0) (TB 0) (TC 0))
            (mant_in\[21\] (T0 0) (T1 193750) (TX 106250) (TZ 0) (TB 0) (TC 0))
            (mant_in\[22\] (T0 0) (T1 193750) (TX 106250) (TZ 0) (TB 0) (TC 0))
            (zero_in (T0 193750) (T1 0) (TX 106250) (TZ 0) (TB 0) (TC 0))
            (inf_in (T0 193750) (T1 0) (TX 106250) (TZ 0) (TB 0) (TC 0))
            (mant\[0\] (T0 193750) (T1 0) (TX 106250) (TZ 0) (TB 0) (TC 0))
            (mant\[1\] (T0 193750) (T1 0) (TX 106250) (TZ 0) (TB 0) (TC 0))
            (mant\[2\] (T0 193750) (T1 0) (TX 106250) (TZ 0) (TB 0) (TC 0))
            (mant\[3\] (T0 193750) (T1 0) (TX 106250) (TZ 0) (TB 0) (TC 0))
            (mant\[4\] (T0 193750) (T1 0) (TX 106250) (TZ 0) (TB 0) (TC 0))
            (mant\[5\] (T0 193750) (T1 0) (TX 106250) (TZ 0) (TB 0) (TC 0))
            (mant\[6\] (T0 193750) (T1 0) (TX 106250) (TZ 0) (TB 0) (TC 0))
            (mant\[7\] (T0 193750) (T1 0) (TX 106250) (TZ 0) (TB 0) (TC 0))